<?xml version="1.0" encoding="utf-8"?>
<!DOCTYPE network SYSTEM "http://matsim.org/files/dtd/network_v1.dtd">
<network>
<nodes>
    <node x="0.0" y="0.0" id="1" />
    <node x="100.0" y="0.0" id="2" />
    <node x="200.0" y="0.0" id="3" />
    <node x="300.0" y="0.0" id="4" />

</nodes>

<links capperiod="10:00:00">
    <link id="1-2" modes="pt" permlanes="1" capacity="2000" freespeed="22" length="1000" to="2" from="1"/>
    <link id="2-1" modes="pt" permlanes="1" capacity="2000" freespeed="22" length="1000" to="1" from="2"/>

    <link id="2-3" modes="pt" permlanes="1" capacity="2000" freespeed="22" length="1000" to="3" from="2"/>
    <link id="3-2" modes="pt" permlanes="1" capacity="2000" freespeed="22" length="1000" to="2" from="3"/>

    <link id="3-4" modes="pt" permlanes="1" capacity="2000" freespeed="22" length="1000" to="4" from="3"/>
    <link id="4-3" modes="pt" permlanes="1" capacity="2000" freespeed="22" length="1000" to="3" from="4"/>
</links>
</network>