<?xml version="1.0" encoding="utf-8"?>
<!DOCTYPE plans SYSTEM "http://www.matsim.org/files/dtd/plans_v4.dtd">
<plans>
  <person employed="no" age="13" id="1">
    <plan selected="yes">
      <act end_time="06:05:00" x="0.0" y="0.0" type="home"/>
      <leg mode="pt"/>
      <act end_time="13:33:00" x="200.0" y="0.0" type="home"/>
    </plan>
  </person>
  <person employed="no" age="27" id="2">
    <plan selected="yes">
      <act end_time="10:56:00" x="100.0" y="0.0" type="home"/>
      <leg mode="pt"/>
      <act end_time="18:22:00" x="300.0" y="0.0" type="home"/>
    </plan>
  </person>
  <person employed="no" age="23" id="3">
    <plan selected="yes">
      <act end_time="05:13:00" x="0.0" y="0.0" type="home"/>
      <leg mode="pt"/>
      <act end_time="10:36:00" x="200.0" y="0.0" type="home"/>
    </plan>
  </person>
  <person employed="no" age="43" id="4">
    <plan selected="yes">
      <act end_time="06:26:00" x="300.0" y="0.0" type="home"/>
      <leg mode="pt"/>
      <act end_time="07:37:00" x="100.0" y="0.0" type="home"/>
    </plan>
  </person>
  <person employed="no" age="53" id="5">
    <plan selected="yes">
      <act end_time="10:57:00" x="300.0" y="0.0" type="home"/>
      <leg mode="pt"/>
      <act end_time="16:06:00" x="200.0" y="0.0" type="home"/>
    </plan>
  </person>
  <person employed="no" age="42" id="6">
    <plan selected="yes">
      <act end_time="07:18:00" x="200.0" y="0.0" type="home"/>
      <leg mode="pt"/>
      <act end_time="13:08:00" x="300.0" y="0.0" type="home"/>
    </plan>
  </person>
  <person employed="no" age="45" id="7">
    <plan selected="yes">
      <act end_time="10:54:00" x="0.0" y="0.0" type="home"/>
      <leg mode="pt"/>
      <act end_time="12:34:00" x="200.0" y="0.0" type="home"/>
    </plan>
  </person>
  <person employed="no" age="43" id="8">
    <plan selected="yes">
      <act end_time="09:53:00" x="200.0" y="0.0" type="home"/>
      <leg mode="pt"/>
      <act end_time="14:50:00" x="0.0" y="0.0" type="home"/>
    </plan>
  </person>
  <person employed="no" age="15" id="9">
    <plan selected="yes">
      <act end_time="08:37:00" x="200.0" y="0.0" type="home"/>
      <leg mode="pt"/>
      <act end_time="11:24:00" x="100.0" y="0.0" type="home"/>
    </plan>
  </person>
  <person employed="no" age="15" id="10">
    <plan selected="yes">
      <act end_time="07:19:00" x="100.0" y="0.0" type="home"/>
      <leg mode="pt"/>
      <act end_time="11:36:00" x="0.0" y="0.0" type="home"/>
    </plan>
  </person>
  <person employed="no" age="51" id="11">
    <plan selected="yes">
      <act end_time="06:36:00" x="200.0" y="0.0" type="home"/>
      <leg mode="pt"/>
      <act end_time="07:40:00" x="0.0" y="0.0" type="home"/>
    </plan>
  </person>
  <person employed="no" age="59" id="12">
    <plan selected="yes">
      <act end_time="10:33:00" x="300.0" y="0.0" type="home"/>
      <leg mode="pt"/>
      <act end_time="13:48:00" x="0.0" y="0.0" type="home"/>
    </plan>
  </person>
  <person employed="no" age="37" id="13">
    <plan selected="yes">
      <act end_time="10:39:00" x="300.0" y="0.0" type="home"/>
      <leg mode="pt"/>
      <act end_time="15:11:00" x="200.0" y="0.0" type="home"/>
    </plan>
  </person>
  <person employed="no" age="53" id="14">
    <plan selected="yes">
      <act end_time="07:57:00" x="100.0" y="0.0" type="home"/>
      <leg mode="pt"/>
      <act end_time="15:14:00" x="300.0" y="0.0" type="home"/>
    </plan>
  </person>
  <person employed="no" age="24" id="15">
    <plan selected="yes">
      <act end_time="11:13:00" x="100.0" y="0.0" type="home"/>
      <leg mode="pt"/>
      <act end_time="12:55:00" x="0.0" y="0.0" type="home"/>
    </plan>
  </person>
  <person employed="no" age="52" id="16">
    <plan selected="yes">
      <act end_time="09:23:00" x="300.0" y="0.0" type="home"/>
      <leg mode="pt"/>
      <act end_time="16:48:00" x="200.0" y="0.0" type="home"/>
    </plan>
  </person>
  <person employed="no" age="41" id="17">
    <plan selected="yes">
      <act end_time="07:28:00" x="200.0" y="0.0" type="home"/>
      <leg mode="pt"/>
      <act end_time="14:29:00" x="0.0" y="0.0" type="home"/>
    </plan>
  </person>
  <person employed="no" age="47" id="18">
    <plan selected="yes">
      <act end_time="05:07:00" x="0.0" y="0.0" type="home"/>
      <leg mode="pt"/>
      <act end_time="07:18:00" x="100.0" y="0.0" type="home"/>
    </plan>
  </person>
  <person employed="no" age="19" id="19">
    <plan selected="yes">
      <act end_time="05:30:00" x="100.0" y="0.0" type="home"/>
      <leg mode="pt"/>
      <act end_time="08:23:00" x="300.0" y="0.0" type="home"/>
    </plan>
  </person>
  <person employed="no" age="13" id="20">
    <plan selected="yes">
      <act end_time="10:46:00" x="0.0" y="0.0" type="home"/>
      <leg mode="pt"/>
      <act end_time="15:14:00" x="100.0" y="0.0" type="home"/>
    </plan>
  </person>
  <person employed="no" age="27" id="21">
    <plan selected="yes">
      <act end_time="06:23:00" x="300.0" y="0.0" type="home"/>
      <leg mode="pt"/>
      <act end_time="10:29:00" x="0.0" y="0.0" type="home"/>
    </plan>
  </person>
  <person employed="no" age="10" id="22">
    <plan selected="yes">
      <act end_time="07:21:00" x="300.0" y="0.0" type="home"/>
      <leg mode="pt"/>
      <act end_time="11:47:00" x="100.0" y="0.0" type="home"/>
    </plan>
  </person>
  <person employed="no" age="49" id="23">
    <plan selected="yes">
      <act end_time="11:32:00" x="100.0" y="0.0" type="home"/>
      <leg mode="pt"/>
      <act end_time="15:03:00" x="200.0" y="0.0" type="home"/>
    </plan>
  </person>
  <person employed="no" age="16" id="24">
    <plan selected="yes">
      <act end_time="06:00:00" x="200.0" y="0.0" type="home"/>
      <leg mode="pt"/>
      <act end_time="11:05:00" x="300.0" y="0.0" type="home"/>
    </plan>
  </person>
  <person employed="no" age="16" id="25">
    <plan selected="yes">
      <act end_time="09:08:00" x="300.0" y="0.0" type="home"/>
      <leg mode="pt"/>
      <act end_time="11:31:00" x="100.0" y="0.0" type="home"/>
    </plan>
  </person>
  <person employed="no" age="42" id="26">
    <plan selected="yes">
      <act end_time="07:02:00" x="0.0" y="0.0" type="home"/>
      <leg mode="pt"/>
      <act end_time="14:11:00" x="100.0" y="0.0" type="home"/>
    </plan>
  </person>
  <person employed="no" age="48" id="27">
    <plan selected="yes">
      <act end_time="10:37:00" x="200.0" y="0.0" type="home"/>
      <leg mode="pt"/>
      <act end_time="12:46:00" x="300.0" y="0.0" type="home"/>
    </plan>
  </person>
  <person employed="no" age="40" id="28">
    <plan selected="yes">
      <act end_time="09:14:00" x="100.0" y="0.0" type="home"/>
      <leg mode="pt"/>
      <act end_time="13:50:00" x="200.0" y="0.0" type="home"/>
    </plan>
  </person>
  <person employed="no" age="29" id="29">
    <plan selected="yes">
      <act end_time="07:40:00" x="200.0" y="0.0" type="home"/>
      <leg mode="pt"/>
      <act end_time="11:04:00" x="0.0" y="0.0" type="home"/>
    </plan>
  </person>
  <person employed="no" age="12" id="30">
    <plan selected="yes">
      <act end_time="10:27:00" x="200.0" y="0.0" type="home"/>
      <leg mode="pt"/>
      <act end_time="16:24:00" x="100.0" y="0.0" type="home"/>
    </plan>
  </person>
  <person employed="no" age="25" id="31">
    <plan selected="yes">
      <act end_time="07:05:00" x="300.0" y="0.0" type="home"/>
      <leg mode="pt"/>
      <act end_time="12:15:00" x="100.0" y="0.0" type="home"/>
    </plan>
  </person>
  <person employed="no" age="47" id="32">
    <plan selected="yes">
      <act end_time="09:20:00" x="300.0" y="0.0" type="home"/>
      <leg mode="pt"/>
      <act end_time="16:37:00" x="100.0" y="0.0" type="home"/>
    </plan>
  </person>
  <person employed="no" age="33" id="33">
    <plan selected="yes">
      <act end_time="07:56:00" x="100.0" y="0.0" type="home"/>
      <leg mode="pt"/>
      <act end_time="13:02:00" x="300.0" y="0.0" type="home"/>
    </plan>
  </person>
  <person employed="no" age="38" id="34">
    <plan selected="yes">
      <act end_time="08:27:00" x="100.0" y="0.0" type="home"/>
      <leg mode="pt"/>
      <act end_time="15:40:00" x="0.0" y="0.0" type="home"/>
    </plan>
  </person>
  <person employed="no" age="21" id="35">
    <plan selected="yes">
      <act end_time="08:16:00" x="300.0" y="0.0" type="home"/>
      <leg mode="pt"/>
      <act end_time="13:58:00" x="200.0" y="0.0" type="home"/>
    </plan>
  </person>
  <person employed="no" age="41" id="36">
    <plan selected="yes">
      <act end_time="05:47:00" x="300.0" y="0.0" type="home"/>
      <leg mode="pt"/>
      <act end_time="13:38:00" x="100.0" y="0.0" type="home"/>
    </plan>
  </person>
  <person employed="no" age="49" id="37">
    <plan selected="yes">
      <act end_time="11:42:00" x="300.0" y="0.0" type="home"/>
      <leg mode="pt"/>
      <act end_time="18:12:00" x="100.0" y="0.0" type="home"/>
    </plan>
  </person>
  <person employed="no" age="10" id="38">
    <plan selected="yes">
      <act end_time="10:44:00" x="100.0" y="0.0" type="home"/>
      <leg mode="pt"/>
      <act end_time="18:04:00" x="200.0" y="0.0" type="home"/>
    </plan>
  </person>
  <person employed="no" age="26" id="39">
    <plan selected="yes">
      <act end_time="10:45:00" x="100.0" y="0.0" type="home"/>
      <leg mode="pt"/>
      <act end_time="17:38:00" x="0.0" y="0.0" type="home"/>
    </plan>
  </person>
  <person employed="no" age="51" id="40">
    <plan selected="yes">
      <act end_time="10:29:00" x="100.0" y="0.0" type="home"/>
      <leg mode="pt"/>
      <act end_time="13:09:00" x="0.0" y="0.0" type="home"/>
    </plan>
  </person>
  <person employed="no" age="22" id="41">
    <plan selected="yes">
      <act end_time="09:19:00" x="100.0" y="0.0" type="home"/>
      <leg mode="pt"/>
      <act end_time="11:02:00" x="200.0" y="0.0" type="home"/>
    </plan>
  </person>
  <person employed="no" age="27" id="42">
    <plan selected="yes">
      <act end_time="08:07:00" x="100.0" y="0.0" type="home"/>
      <leg mode="pt"/>
      <act end_time="10:04:00" x="200.0" y="0.0" type="home"/>
    </plan>
  </person>
  <person employed="no" age="29" id="43">
    <plan selected="yes">
      <act end_time="11:39:00" x="100.0" y="0.0" type="home"/>
      <leg mode="pt"/>
      <act end_time="13:17:00" x="300.0" y="0.0" type="home"/>
    </plan>
  </person>
  <person employed="no" age="41" id="44">
    <plan selected="yes">
      <act end_time="09:56:00" x="100.0" y="0.0" type="home"/>
      <leg mode="pt"/>
      <act end_time="16:45:00" x="200.0" y="0.0" type="home"/>
    </plan>
  </person>
  <person employed="no" age="41" id="45">
    <plan selected="yes">
      <act end_time="06:29:00" x="300.0" y="0.0" type="home"/>
      <leg mode="pt"/>
      <act end_time="14:28:00" x="200.0" y="0.0" type="home"/>
    </plan>
  </person>
  <person employed="no" age="12" id="46">
    <plan selected="yes">
      <act end_time="05:07:00" x="300.0" y="0.0" type="home"/>
      <leg mode="pt"/>
      <act end_time="09:13:00" x="100.0" y="0.0" type="home"/>
    </plan>
  </person>
  <person employed="no" age="55" id="47">
    <plan selected="yes">
      <act end_time="07:43:00" x="200.0" y="0.0" type="home"/>
      <leg mode="pt"/>
      <act end_time="13:42:00" x="0.0" y="0.0" type="home"/>
    </plan>
  </person>
  <person employed="no" age="58" id="48">
    <plan selected="yes">
      <act end_time="11:33:00" x="300.0" y="0.0" type="home"/>
      <leg mode="pt"/>
      <act end_time="12:33:00" x="100.0" y="0.0" type="home"/>
    </plan>
  </person>
  <person employed="no" age="42" id="49">
    <plan selected="yes">
      <act end_time="06:28:00" x="300.0" y="0.0" type="home"/>
      <leg mode="pt"/>
      <act end_time="12:20:00" x="100.0" y="0.0" type="home"/>
    </plan>
  </person>
  <person employed="no" age="16" id="50">
    <plan selected="yes">
      <act end_time="10:31:00" x="300.0" y="0.0" type="home"/>
      <leg mode="pt"/>
      <act end_time="11:42:00" x="100.0" y="0.0" type="home"/>
    </plan>
  </person>
  <person employed="no" age="13" id="51">
    <plan selected="yes">
      <act end_time="11:12:00" x="100.0" y="0.0" type="home"/>
      <leg mode="pt"/>
      <act end_time="13:05:00" x="0.0" y="0.0" type="home"/>
    </plan>
  </person>
  <person employed="no" age="21" id="52">
    <plan selected="yes">
      <act end_time="05:34:00" x="300.0" y="0.0" type="home"/>
      <leg mode="pt"/>
      <act end_time="12:07:00" x="0.0" y="0.0" type="home"/>
    </plan>
  </person>
  <person employed="no" age="12" id="53">
    <plan selected="yes">
      <act end_time="06:20:00" x="200.0" y="0.0" type="home"/>
      <leg mode="pt"/>
      <act end_time="08:38:00" x="100.0" y="0.0" type="home"/>
    </plan>
  </person>
  <person employed="no" age="31" id="54">
    <plan selected="yes">
      <act end_time="11:54:00" x="0.0" y="0.0" type="home"/>
      <leg mode="pt"/>
      <act end_time="19:11:00" x="100.0" y="0.0" type="home"/>
    </plan>
  </person>
  <person employed="no" age="24" id="55">
    <plan selected="yes">
      <act end_time="06:19:00" x="200.0" y="0.0" type="home"/>
      <leg mode="pt"/>
      <act end_time="08:56:00" x="100.0" y="0.0" type="home"/>
    </plan>
  </person>
  <person employed="no" age="53" id="56">
    <plan selected="yes">
      <act end_time="08:45:00" x="0.0" y="0.0" type="home"/>
      <leg mode="pt"/>
      <act end_time="11:16:00" x="100.0" y="0.0" type="home"/>
    </plan>
  </person>
  <person employed="no" age="36" id="57">
    <plan selected="yes">
      <act end_time="07:30:00" x="200.0" y="0.0" type="home"/>
      <leg mode="pt"/>
      <act end_time="15:18:00" x="300.0" y="0.0" type="home"/>
    </plan>
  </person>
  <person employed="no" age="13" id="58">
    <plan selected="yes">
      <act end_time="08:52:00" x="300.0" y="0.0" type="home"/>
      <leg mode="pt"/>
      <act end_time="16:24:00" x="200.0" y="0.0" type="home"/>
    </plan>
  </person>
  <person employed="no" age="10" id="59">
    <plan selected="yes">
      <act end_time="09:35:00" x="100.0" y="0.0" type="home"/>
      <leg mode="pt"/>
      <act end_time="11:22:00" x="200.0" y="0.0" type="home"/>
    </plan>
  </person>
  <person employed="no" age="31" id="60">
    <plan selected="yes">
      <act end_time="09:54:00" x="300.0" y="0.0" type="home"/>
      <leg mode="pt"/>
      <act end_time="17:18:00" x="0.0" y="0.0" type="home"/>
    </plan>
  </person>
  <person employed="no" age="29" id="61">
    <plan selected="yes">
      <act end_time="09:49:00" x="300.0" y="0.0" type="home"/>
      <leg mode="pt"/>
      <act end_time="12:00:00" x="100.0" y="0.0" type="home"/>
    </plan>
  </person>
  <person employed="no" age="12" id="62">
    <plan selected="yes">
      <act end_time="07:20:00" x="100.0" y="0.0" type="home"/>
      <leg mode="pt"/>
      <act end_time="10:53:00" x="0.0" y="0.0" type="home"/>
    </plan>
  </person>
  <person employed="no" age="19" id="63">
    <plan selected="yes">
      <act end_time="07:55:00" x="200.0" y="0.0" type="home"/>
      <leg mode="pt"/>
      <act end_time="09:21:00" x="0.0" y="0.0" type="home"/>
    </plan>
  </person>
  <person employed="no" age="22" id="64">
    <plan selected="yes">
      <act end_time="09:04:00" x="300.0" y="0.0" type="home"/>
      <leg mode="pt"/>
      <act end_time="12:37:00" x="0.0" y="0.0" type="home"/>
    </plan>
  </person>
  <person employed="no" age="55" id="65">
    <plan selected="yes">
      <act end_time="10:23:00" x="300.0" y="0.0" type="home"/>
      <leg mode="pt"/>
      <act end_time="12:44:00" x="0.0" y="0.0" type="home"/>
    </plan>
  </person>
  <person employed="no" age="17" id="66">
    <plan selected="yes">
      <act end_time="10:25:00" x="300.0" y="0.0" type="home"/>
      <leg mode="pt"/>
      <act end_time="17:56:00" x="200.0" y="0.0" type="home"/>
    </plan>
  </person>
  <person employed="no" age="17" id="67">
    <plan selected="yes">
      <act end_time="10:08:00" x="200.0" y="0.0" type="home"/>
      <leg mode="pt"/>
      <act end_time="12:24:00" x="0.0" y="0.0" type="home"/>
    </plan>
  </person>
  <person employed="no" age="20" id="68">
    <plan selected="yes">
      <act end_time="08:02:00" x="100.0" y="0.0" type="home"/>
      <leg mode="pt"/>
      <act end_time="09:43:00" x="200.0" y="0.0" type="home"/>
    </plan>
  </person>
  <person employed="no" age="53" id="69">
    <plan selected="yes">
      <act end_time="11:39:00" x="0.0" y="0.0" type="home"/>
      <leg mode="pt"/>
      <act end_time="14:55:00" x="300.0" y="0.0" type="home"/>
    </plan>
  </person>
  <person employed="no" age="15" id="70">
    <plan selected="yes">
      <act end_time="11:37:00" x="0.0" y="0.0" type="home"/>
      <leg mode="pt"/>
      <act end_time="18:31:00" x="300.0" y="0.0" type="home"/>
    </plan>
  </person>
  <person employed="no" age="23" id="71">
    <plan selected="yes">
      <act end_time="11:55:00" x="100.0" y="0.0" type="home"/>
      <leg mode="pt"/>
      <act end_time="17:41:00" x="200.0" y="0.0" type="home"/>
    </plan>
  </person>
  <person employed="no" age="51" id="72">
    <plan selected="yes">
      <act end_time="05:10:00" x="300.0" y="0.0" type="home"/>
      <leg mode="pt"/>
      <act end_time="07:32:00" x="200.0" y="0.0" type="home"/>
    </plan>
  </person>
  <person employed="no" age="56" id="73">
    <plan selected="yes">
      <act end_time="08:12:00" x="100.0" y="0.0" type="home"/>
      <leg mode="pt"/>
      <act end_time="14:55:00" x="0.0" y="0.0" type="home"/>
    </plan>
  </person>
  <person employed="no" age="23" id="74">
    <plan selected="yes">
      <act end_time="05:06:00" x="300.0" y="0.0" type="home"/>
      <leg mode="pt"/>
      <act end_time="10:32:00" x="200.0" y="0.0" type="home"/>
    </plan>
  </person>
  <person employed="no" age="32" id="75">
    <plan selected="yes">
      <act end_time="11:49:00" x="100.0" y="0.0" type="home"/>
      <leg mode="pt"/>
      <act end_time="15:56:00" x="200.0" y="0.0" type="home"/>
    </plan>
  </person>
  <person employed="no" age="29" id="76">
    <plan selected="yes">
      <act end_time="10:58:00" x="0.0" y="0.0" type="home"/>
      <leg mode="pt"/>
      <act end_time="17:58:00" x="200.0" y="0.0" type="home"/>
    </plan>
  </person>
  <person employed="no" age="39" id="77">
    <plan selected="yes">
      <act end_time="10:40:00" x="0.0" y="0.0" type="home"/>
      <leg mode="pt"/>
      <act end_time="15:42:00" x="300.0" y="0.0" type="home"/>
    </plan>
  </person>
  <person employed="no" age="24" id="78">
    <plan selected="yes">
      <act end_time="09:03:00" x="0.0" y="0.0" type="home"/>
      <leg mode="pt"/>
      <act end_time="11:17:00" x="300.0" y="0.0" type="home"/>
    </plan>
  </person>
  <person employed="no" age="30" id="79">
    <plan selected="yes">
      <act end_time="11:32:00" x="300.0" y="0.0" type="home"/>
      <leg mode="pt"/>
      <act end_time="14:23:00" x="200.0" y="0.0" type="home"/>
    </plan>
  </person>
  <person employed="no" age="46" id="80">
    <plan selected="yes">
      <act end_time="07:35:00" x="0.0" y="0.0" type="home"/>
      <leg mode="pt"/>
      <act end_time="11:58:00" x="300.0" y="0.0" type="home"/>
    </plan>
  </person>
  <person employed="no" age="52" id="81">
    <plan selected="yes">
      <act end_time="07:24:00" x="0.0" y="0.0" type="home"/>
      <leg mode="pt"/>
      <act end_time="11:42:00" x="300.0" y="0.0" type="home"/>
    </plan>
  </person>
  <person employed="no" age="54" id="82">
    <plan selected="yes">
      <act end_time="07:40:00" x="300.0" y="0.0" type="home"/>
      <leg mode="pt"/>
      <act end_time="09:12:00" x="0.0" y="0.0" type="home"/>
    </plan>
  </person>
  <person employed="no" age="59" id="83">
    <plan selected="yes">
      <act end_time="11:17:00" x="0.0" y="0.0" type="home"/>
      <leg mode="pt"/>
      <act end_time="16:49:00" x="100.0" y="0.0" type="home"/>
    </plan>
  </person>
  <person employed="no" age="43" id="84">
    <plan selected="yes">
      <act end_time="09:10:00" x="0.0" y="0.0" type="home"/>
      <leg mode="pt"/>
      <act end_time="10:15:00" x="300.0" y="0.0" type="home"/>
    </plan>
  </person>
  <person employed="no" age="10" id="85">
    <plan selected="yes">
      <act end_time="06:18:00" x="300.0" y="0.0" type="home"/>
      <leg mode="pt"/>
      <act end_time="09:43:00" x="100.0" y="0.0" type="home"/>
    </plan>
  </person>
  <person employed="no" age="54" id="86">
    <plan selected="yes">
      <act end_time="07:04:00" x="0.0" y="0.0" type="home"/>
      <leg mode="pt"/>
      <act end_time="09:00:00" x="100.0" y="0.0" type="home"/>
    </plan>
  </person>
  <person employed="no" age="27" id="87">
    <plan selected="yes">
      <act end_time="09:50:00" x="100.0" y="0.0" type="home"/>
      <leg mode="pt"/>
      <act end_time="17:23:00" x="300.0" y="0.0" type="home"/>
    </plan>
  </person>
  <person employed="no" age="13" id="88">
    <plan selected="yes">
      <act end_time="05:58:00" x="200.0" y="0.0" type="home"/>
      <leg mode="pt"/>
      <act end_time="09:30:00" x="0.0" y="0.0" type="home"/>
    </plan>
  </person>
  <person employed="no" age="46" id="89">
    <plan selected="yes">
      <act end_time="07:45:00" x="300.0" y="0.0" type="home"/>
      <leg mode="pt"/>
      <act end_time="12:12:00" x="200.0" y="0.0" type="home"/>
    </plan>
  </person>
  <person employed="no" age="35" id="90">
    <plan selected="yes">
      <act end_time="06:46:00" x="100.0" y="0.0" type="home"/>
      <leg mode="pt"/>
      <act end_time="09:13:00" x="200.0" y="0.0" type="home"/>
    </plan>
  </person>
  <person employed="no" age="34" id="91">
    <plan selected="yes">
      <act end_time="11:06:00" x="300.0" y="0.0" type="home"/>
      <leg mode="pt"/>
      <act end_time="18:53:00" x="100.0" y="0.0" type="home"/>
    </plan>
  </person>
  <person employed="no" age="53" id="92">
    <plan selected="yes">
      <act end_time="06:15:00" x="100.0" y="0.0" type="home"/>
      <leg mode="pt"/>
      <act end_time="12:07:00" x="300.0" y="0.0" type="home"/>
    </plan>
  </person>
  <person employed="no" age="35" id="93">
    <plan selected="yes">
      <act end_time="07:58:00" x="300.0" y="0.0" type="home"/>
      <leg mode="pt"/>
      <act end_time="15:25:00" x="100.0" y="0.0" type="home"/>
    </plan>
  </person>
  <person employed="no" age="57" id="94">
    <plan selected="yes">
      <act end_time="11:07:00" x="200.0" y="0.0" type="home"/>
      <leg mode="pt"/>
      <act end_time="14:10:00" x="100.0" y="0.0" type="home"/>
    </plan>
  </person>
  <person employed="no" age="43" id="95">
    <plan selected="yes">
      <act end_time="06:18:00" x="200.0" y="0.0" type="home"/>
      <leg mode="pt"/>
      <act end_time="12:04:00" x="300.0" y="0.0" type="home"/>
    </plan>
  </person>
  <person employed="no" age="21" id="96">
    <plan selected="yes">
      <act end_time="09:05:00" x="100.0" y="0.0" type="home"/>
      <leg mode="pt"/>
      <act end_time="16:23:00" x="200.0" y="0.0" type="home"/>
    </plan>
  </person>
  <person employed="no" age="25" id="97">
    <plan selected="yes">
      <act end_time="05:17:00" x="200.0" y="0.0" type="home"/>
      <leg mode="pt"/>
      <act end_time="09:28:00" x="300.0" y="0.0" type="home"/>
    </plan>
  </person>
  <person employed="no" age="56" id="98">
    <plan selected="yes">
      <act end_time="09:01:00" x="300.0" y="0.0" type="home"/>
      <leg mode="pt"/>
      <act end_time="14:32:00" x="100.0" y="0.0" type="home"/>
    </plan>
  </person>
  <person employed="no" age="30" id="99">
    <plan selected="yes">
      <act end_time="11:46:00" x="200.0" y="0.0" type="home"/>
      <leg mode="pt"/>
      <act end_time="14:30:00" x="100.0" y="0.0" type="home"/>
    </plan>
  </person>
  <person employed="no" age="12" id="100">
    <plan selected="yes">
      <act end_time="06:51:00" x="100.0" y="0.0" type="home"/>
      <leg mode="pt"/>
      <act end_time="08:48:00" x="300.0" y="0.0" type="home"/>
    </plan>
  </person>
  <person employed="no" age="15" id="101">
    <plan selected="yes">
      <act end_time="11:22:00" x="200.0" y="0.0" type="home"/>
      <leg mode="pt"/>
      <act end_time="13:01:00" x="100.0" y="0.0" type="home"/>
    </plan>
  </person>
  <person employed="no" age="31" id="102">
    <plan selected="yes">
      <act end_time="10:43:00" x="0.0" y="0.0" type="home"/>
      <leg mode="pt"/>
      <act end_time="13:22:00" x="200.0" y="0.0" type="home"/>
    </plan>
  </person>
  <person employed="no" age="33" id="103">
    <plan selected="yes">
      <act end_time="06:35:00" x="0.0" y="0.0" type="home"/>
      <leg mode="pt"/>
      <act end_time="08:57:00" x="200.0" y="0.0" type="home"/>
    </plan>
  </person>
  <person employed="no" age="48" id="104">
    <plan selected="yes">
      <act end_time="09:38:00" x="300.0" y="0.0" type="home"/>
      <leg mode="pt"/>
      <act end_time="16:45:00" x="0.0" y="0.0" type="home"/>
    </plan>
  </person>
  <person employed="no" age="47" id="105">
    <plan selected="yes">
      <act end_time="10:06:00" x="300.0" y="0.0" type="home"/>
      <leg mode="pt"/>
      <act end_time="15:53:00" x="200.0" y="0.0" type="home"/>
    </plan>
  </person>
  <person employed="no" age="34" id="106">
    <plan selected="yes">
      <act end_time="08:01:00" x="300.0" y="0.0" type="home"/>
      <leg mode="pt"/>
      <act end_time="10:46:00" x="0.0" y="0.0" type="home"/>
    </plan>
  </person>
  <person employed="no" age="20" id="107">
    <plan selected="yes">
      <act end_time="06:22:00" x="300.0" y="0.0" type="home"/>
      <leg mode="pt"/>
      <act end_time="08:19:00" x="100.0" y="0.0" type="home"/>
    </plan>
  </person>
  <person employed="no" age="20" id="108">
    <plan selected="yes">
      <act end_time="08:37:00" x="100.0" y="0.0" type="home"/>
      <leg mode="pt"/>
      <act end_time="10:10:00" x="0.0" y="0.0" type="home"/>
    </plan>
  </person>
  <person employed="no" age="12" id="109">
    <plan selected="yes">
      <act end_time="09:04:00" x="100.0" y="0.0" type="home"/>
      <leg mode="pt"/>
      <act end_time="11:40:00" x="200.0" y="0.0" type="home"/>
    </plan>
  </person>
  <person employed="no" age="48" id="110">
    <plan selected="yes">
      <act end_time="11:21:00" x="0.0" y="0.0" type="home"/>
      <leg mode="pt"/>
      <act end_time="14:24:00" x="300.0" y="0.0" type="home"/>
    </plan>
  </person>
  <person employed="no" age="36" id="111">
    <plan selected="yes">
      <act end_time="10:00:00" x="200.0" y="0.0" type="home"/>
      <leg mode="pt"/>
      <act end_time="12:35:00" x="0.0" y="0.0" type="home"/>
    </plan>
  </person>
  <person employed="no" age="47" id="112">
    <plan selected="yes">
      <act end_time="06:00:00" x="100.0" y="0.0" type="home"/>
      <leg mode="pt"/>
      <act end_time="07:59:00" x="200.0" y="0.0" type="home"/>
    </plan>
  </person>
  <person employed="no" age="45" id="113">
    <plan selected="yes">
      <act end_time="05:14:00" x="100.0" y="0.0" type="home"/>
      <leg mode="pt"/>
      <act end_time="09:14:00" x="0.0" y="0.0" type="home"/>
    </plan>
  </person>
  <person employed="no" age="43" id="114">
    <plan selected="yes">
      <act end_time="08:12:00" x="200.0" y="0.0" type="home"/>
      <leg mode="pt"/>
      <act end_time="15:40:00" x="100.0" y="0.0" type="home"/>
    </plan>
  </person>
  <person employed="no" age="26" id="115">
    <plan selected="yes">
      <act end_time="06:07:00" x="0.0" y="0.0" type="home"/>
      <leg mode="pt"/>
      <act end_time="12:06:00" x="100.0" y="0.0" type="home"/>
    </plan>
  </person>
  <person employed="no" age="11" id="116">
    <plan selected="yes">
      <act end_time="08:15:00" x="200.0" y="0.0" type="home"/>
      <leg mode="pt"/>
      <act end_time="10:57:00" x="300.0" y="0.0" type="home"/>
    </plan>
  </person>
  <person employed="no" age="19" id="117">
    <plan selected="yes">
      <act end_time="09:11:00" x="300.0" y="0.0" type="home"/>
      <leg mode="pt"/>
      <act end_time="11:58:00" x="0.0" y="0.0" type="home"/>
    </plan>
  </person>
  <person employed="no" age="27" id="118">
    <plan selected="yes">
      <act end_time="10:53:00" x="200.0" y="0.0" type="home"/>
      <leg mode="pt"/>
      <act end_time="14:15:00" x="100.0" y="0.0" type="home"/>
    </plan>
  </person>
  <person employed="no" age="18" id="119">
    <plan selected="yes">
      <act end_time="07:06:00" x="200.0" y="0.0" type="home"/>
      <leg mode="pt"/>
      <act end_time="14:15:00" x="100.0" y="0.0" type="home"/>
    </plan>
  </person>
  <person employed="no" age="13" id="120">
    <plan selected="yes">
      <act end_time="10:59:00" x="0.0" y="0.0" type="home"/>
      <leg mode="pt"/>
      <act end_time="16:15:00" x="200.0" y="0.0" type="home"/>
    </plan>
  </person>
  <person employed="no" age="59" id="121">
    <plan selected="yes">
      <act end_time="06:55:00" x="100.0" y="0.0" type="home"/>
      <leg mode="pt"/>
      <act end_time="10:12:00" x="200.0" y="0.0" type="home"/>
    </plan>
  </person>
  <person employed="no" age="38" id="122">
    <plan selected="yes">
      <act end_time="05:37:00" x="200.0" y="0.0" type="home"/>
      <leg mode="pt"/>
      <act end_time="11:20:00" x="100.0" y="0.0" type="home"/>
    </plan>
  </person>
  <person employed="no" age="20" id="123">
    <plan selected="yes">
      <act end_time="08:11:00" x="100.0" y="0.0" type="home"/>
      <leg mode="pt"/>
      <act end_time="14:02:00" x="0.0" y="0.0" type="home"/>
    </plan>
  </person>
  <person employed="no" age="54" id="124">
    <plan selected="yes">
      <act end_time="06:11:00" x="200.0" y="0.0" type="home"/>
      <leg mode="pt"/>
      <act end_time="09:32:00" x="0.0" y="0.0" type="home"/>
    </plan>
  </person>
  <person employed="no" age="17" id="125">
    <plan selected="yes">