<?xml version="1.0" encoding="UTF-8"?>
<!DOCTYPE transitSchedule SYSTEM "http://www.matsim.org/files/dtd/transitSchedule_v1.dtd">
<transitSchedule>
    <transitStops>
        <stopFacility id="1" x="0" y="0" linkRefId="1-2"/>
        <stopFacility id="2" x="100" y="0" linkRefId="2-3"/>
        <stopFacility id="3" x="200" y="0" linkRefId="3-4"/>
        <stopFacility id="4" x="300" y="0" linkRefId="3-4"/>

        <stopFacility id="1bis" x="0" y="0" linkRefId="2-1"/>
        <stopFacility id="2bis" x="100" y="0" linkRefId="2-1"/>
        <stopFacility id="3bis" x="200" y="0" linkRefId="3-2"/>
        <stopFacility id="4bis" x="300" y="0" linkRefId="4-3"/>
    </transitStops>
    
    <transitLine id="gelb">
        <transitRoute id="gelb_1">
            <transportMode>pt</transportMode>
            <routeProfile>
                <stop refId="1" departureOffset="00:00:00" arrivalOffset="00:00:00" awaitDeparture="true"/>
                <stop refId="2" departureOffset="00:01:00" arrivalOffset="00:01:30" awaitDeparture="true"/>
                <stop refId="3" departureOffset="00:02:00" arrivalOffset="00:02:30" awaitDeparture="true"/>
                <stop refId="4" departureOffset="00:03:00" arrivalOffset="00:03:30" awaitDeparture="true"/>
            </routeProfile>
            <route>
                <link refId="1-2"/>
                <link refId="2-3"/>
                <link refId="3-4"/>
            </route>
            <departures>
                <departure id="gelb1_1" departureTime="05:02:00" vehicleRefId="1"/>
            </departures>
        </transitRoute>

        <transitRoute id="gelb_1r">
            <transportMode>pt</transportMode>
            <routeProfile>
                <stop refId="4bis" departureOffset="00:00:00" arrivalOffset="00:00:00" awaitDeparture="true"/>
                <stop refId="3bis" departureOffset="00:01:00" arrivalOffset="00:01:30" awaitDeparture="true"/>
                <stop refId="2bis" departureOffset="00:02:00" arrivalOffset="00:02:30" awaitDeparture="true"/>
                <stop refId="1bis" departureOffset="00:03:00" arrivalOffset="00:03:30" awaitDeparture="true"/>
            </routeProfile>
            <route>
                <link refId="4-3"/>
                <link refId="3-2"/>
                <link refId="2-1"/>
            </route>
            <departures>
                <departure id="gelb2_1" departureTime="05:21:00" vehicleRefId="2"/>
            </departures>
        </transitRoute>
    </transitLine>
</transitSchedule>